16
whatever molecule this is
  C           1.52791418326918      0.24996732001330      0.01090022135278
  C           0.76904148905263      1.33808053809703     -0.12286227991778
  C          -0.73381968560855      1.30450888577662     -0.12990619220659
  C          -1.27561442932077     -0.03881817266033      0.36540496647689
  C          -0.50792999805447     -1.19433635146850     -0.27843039240754
  C           0.96945060381461     -1.14155969572299      0.11847698257661
  H           2.61161663660726      0.35554146838702      0.03709467565811
  H           1.24627223165189      2.31176683751480     -0.22497508758586
  H          -1.12153423581246      2.12411158300475      0.49000010191044
  H          -1.09936897278537      1.50714774677796     -1.14892493358492
  H          -2.34829623024794     -0.11757788716137      0.15321384429140
  H          -1.15851319514578     -0.09514619749451      1.45646615687298
  H          -0.59117281947292     -1.11441274568094     -1.37112622082916
  H          -0.94398171373604     -2.15887137784501      0.00687542544114
  H           1.09809208114587     -1.50818065321760      1.14907427870963
  H           1.55803405464288     -1.82222129832024     -0.51129154675813